/*--------------------------------*- C++ -*----------------------------------*\
| =========                 |                                                 |
| \\      /  F ield         | OpenFOAM: The Open Source CFD Toolbox           |
|  \\    /   O peration     | Version:  2.4.0                                 |
|   \\  /    A nd           | Web:      www.OpenFOAM.org                      |
|    \\/     M anipulation  |                                                 |
\*---------------------------------------------------------------------------*/
FoamFile
{
    version     2.0;
    format      ascii;
    class       dictionary;
    location    "constant/polyMesh";
    object      blockMeshDict;
}
// * * * * * * * * * * * * * * * * * * * * * * * * * * * * * * * * * * * * * //

convertToMeters 0.001;

//        4_______________5
//        /|             /|
//      2/_|___________3/ |  y
//       | |            | | /
//       | |0___________|_1/
//       | /            | /
//       |/_____________|/__________x
//       0              1
vertices
(
    (  0.0  0.0             0.0)
    (254.0  0.0             0.0)
    (  0.0 -0.988344491815 22.6368105216)
    (254.0 -0.765568351423 17.5343980323)
    (  0.0  0.988344491815 22.6368105216)
    (254.0  0.765568351423 17.5343980323)
);

blocks
(
//    hex (0 1 1 0 2 3 5 4) (200 1 120)
    hex (0 1 1 0 2 3 5 4) (200 1 30)
    simpleGrading
    (
        1
        1
        (
        // 0.014317
        // 2.54e-4 (.36 .28 .36) (.40 .20 .40) (2.580 0.387) 1.09
        // 1.27e-4 (.26 .48 .26) (.30 .40 .30) (2.292 0.436) 1.05
        // 6.35e-5 (.19 .62 .19) (.24 .52 .24) (2.221 0.450) 1.03
        //         len%          ncell%        expansion-ratio
            (0.19 0.24 2.221)
            (0.62 0.52 1)
            (0.19 0.24 0.450)
        )
    )
);

edges
(
    spline 2 3
    (
        ( 0.635 -0.988326202205 22.6363916207 )
        ( 1.27 -0.988271335856 22.6351349747 )
        ( 1.905 -0.988179900215 22.6330407542 )
        ( 2.54 -0.988051907694 22.6301092435 )
        ( 3.175 -0.987887375671 22.6263408406 )
        ( 3.81 -0.987686326494 22.6217360574 )
        ( 4.445 -0.987448787479 22.6162955195 )
        ( 5.08 -0.987174790919 22.6100199665 )
        ( 5.715 -0.986864374081 22.6029102521 )
        ( 6.35 -0.986517579216 22.5949673438 )
        ( 6.985 -0.986134453559 22.5861923235 )
        ( 7.62 -0.985715049336 22.5765863876 )
        ( 8.255 -0.98525942377 22.5661508464 )
        ( 8.89 -0.984767639086 22.5548871253 )
        ( 9.525 -0.984239762517 22.5427967641 )
        ( 10.16 -0.983675866315 22.5298814177 )
        ( 10.795 -0.983076027755 22.516142856 )
        ( 11.43 -0.982440329143 22.501582964 )
        ( 12.065 -0.981768857827 22.4862037424 )
        ( 12.7 -0.981061706209 22.4700073076 )
        ( 13.335 -0.980318971748 22.4529958916 )
        ( 13.97 -0.979540756976 22.4351718429 )
        ( 14.605 -0.978727169507 22.4165376263 )
        ( 15.24 -0.97787832205 22.3970958231 )
        ( 15.875 -0.976994332422 22.3768491319 )
        ( 16.51 -0.976075323556 22.3558003683 )
        ( 17.145 -0.975121423521 22.3339524656 )
        ( 17.78 -0.974132765532 22.3113084748 )
        ( 18.415 -0.973109487967 22.2878715654 )
        ( 19.05 -0.972051734379 22.2636450252 )
        ( 19.685 -0.970959653516 22.2386322611 )
        ( 20.32 -0.969833399333 22.2128367994 )
        ( 20.955 -0.968673131015 22.1862622858 )
        ( 21.59 -0.967479012989 22.1589124865 )
        ( 22.225 -0.966251214944 22.130791288 )
        ( 22.86 -0.964989911853 22.1019026977 )
        ( 23.495 -0.963695283989 22.0722508446 )
        ( 24.13 -0.962367516948 22.0418399796 )
        ( 24.765 -0.961006801665 22.0106744758 )
        ( 25.4 -0.959613334444 21.9787588292 )
        ( 26.035 -0.958187316971 21.9460976594 )
        ( 26.67 -0.956728956345 21.9126957095 )
        ( 27.305 -0.955238465095 21.8785578474 )
        ( 27.94 -0.953716061209 21.8436890657 )
        ( 28.575 -0.952161968155 21.8080944828 )
        ( 29.21 -0.950576414911 21.771779343 )
        ( 29.845 -0.948959635988 21.7347490176 )
        ( 30.48 -0.947311871456 21.6970090051 )
        ( 31.115 -0.945633366977 21.658564932 )
        ( 31.75 -0.943924373826 21.6194225536 )
        ( 32.385 -0.942185148927 21.5795877542 )
        ( 33.02 -0.940415954877 21.5390665485 )
        ( 33.655 -0.938617059982 21.4978650816 )
        ( 34.29 -0.936788738281 21.45598963 )
        ( 34.925 -0.934931269585 21.4134466025 )
        ( 35.56 -0.933044939506 21.3702425406 )
        ( 36.195 -0.93113003949 21.3263841196 )
        ( 36.83 -0.929186866849 21.281878149 )
        ( 37.465 -0.927215724803 21.2367315737 )
        ( 38.1 -0.925216922504 21.1909514745 )
        ( 38.735 -0.923190775084 21.144545069 )
        ( 39.37 -0.921137603681 21.0975197125 )
        ( 40.005 -0.919057735482 21.0498828989 )
        ( 40.64 -0.91695150376 21.0016422614 )
        ( 41.275 -0.914819247913 20.9528055734 )
        ( 41.91 -0.9126613135 20.9033807495 )
        ( 42.545 -0.910478052283 20.8533758465 )
        ( 43.18 -0.908269822268 20.8027990639 )
        ( 43.815 -0.906036987745 20.7516587455 )
        ( 44.45 -0.903779919329 20.6999633797 )
        ( 45.085 -0.901498994002 20.6477216008 )
        ( 45.72 -0.899194595155 20.5949421898 )
        ( 46.355 -0.896867112633 20.5416340758 )
        ( 46.99 -0.894516942776 20.4878063364 )
        ( 47.625 -0.892144488464 20.4334681991 )
        ( 48.26 -0.889750159161 20.3786290421 )
        ( 48.895 -0.887334370958 20.3232983955 )
        ( 49.53 -0.884897546621 20.2674859422 )
        ( 50.165 -0.882440115633 20.211201519 )
        ( 50.8 -0.87996251424 20.1544551176 )
        ( 51.435 -0.877465185497 20.0972568855 )
        ( 52.07 -0.874948579315 20.0396171276 )
        ( 52.705 -0.872413152502 19.9815463063 )
        ( 53.34 -0.869859368813 19.9230550434 )
        ( 53.975 -0.867287698993 19.8641541208 )
        ( 54.61 -0.864698620823 19.8048544814 )
        ( 55.245 -0.862092619165 19.7451672304 )
        ( 55.88 -0.859470186006 19.6851036361 )
        ( 56.515 -0.856831820504 19.6246751313 )
        ( 57.15 -0.85417802903 19.5638933135 )
        ( 57.785 -0.851509325211 19.5027699469 )
        ( 58.42 -0.848826229973 19.4413169627 )
        ( 59.055 -0.846129271584 19.37954646 )
        ( 59.69 -0.843418985692 19.3174707074 )
        ( 60.325 -0.840695915364 19.255102143 )
        ( 60.96 -0.83796061113 19.1924533761 )
        ( 61.595 -0.835213631011 19.1295371875 )
        ( 62.23 -0.832455540562 19.0663665305 )
        ( 62.865 -0.829686912902 19.0029545317 )
        ( 63.5 -0.826908328747 18.9393144917 )
        ( 64.135 -0.824120376438 18.8754598856 )
        ( 64.77 -0.821323651972 18.8114043642 )
        ( 65.405 -0.818518759025 18.7471617537 )
        ( 66.04 -0.815706308972 18.6827460571 )
        ( 66.675 -0.812886920913 18.618171454 )
        ( 67.31 -0.810061221684 18.5534523013 )
        ( 67.945 -0.807229845874 18.4886031336 )
        ( 68.58 -0.804393435832 18.423638663 )
        ( 69.215 -0.801552641677 18.3585737797 )
        ( 69.85 -0.798708121296 18.2934235518 )
        ( 70.485 -0.795860540342 18.2282032252 )
        ( 71.12 -0.79301057223 18.1629282238 )
        ( 71.755 -0.790158898123 18.0976141486 )
        ( 72.39 -0.787306206916 18.032276778 )
        ( 73.025 -0.784453195211 17.9669320668 )
        ( 73.66 -0.781600567291 17.9015961457 )
        ( 74.295 -0.778749035083 17.8362853206 )
        ( 74.93 -0.775899318118 17.7710160714 )
        ( 75.565 -0.773052143481 17.705805051 )
        ( 76.2 -0.770208245758 17.6406690843 )
        ( 76.835 -0.767368366968 17.5756251663 )
        ( 77.47 -0.764533256494 17.5106904607 )
        ( 78.105 -0.761703671002 17.445882298 )
        ( 78.74 -0.758880374351 17.3812181734 )
        ( 79.375 -0.756064137494 17.3167157447 )
        ( 80.01 -0.75325573837 17.2523928296 )
        ( 80.645 -0.750455961785 17.1882674031 )
        ( 81.28 -0.747665599279 17.1243575945 )
        ( 81.915 -0.744885448989 17.0606816841 )
        ( 82.55 -0.742116315491 16.9972580997 )
        ( 83.185 -0.739359009642 16.934105413 )
        ( 83.82 -0.736614348393 16.8712423352 )
        ( 84.455 -0.733883154605 16.808687713 )
        ( 85.09 -0.731166256841 16.7464605236 )
        ( 85.725 -0.728464489147 16.6845798698 )
        ( 86.36 -0.725778690823 16.6230649747 )
        ( 86.995 -0.723109706166 16.5619351758 )
        ( 87.63 -0.720458384216 16.5012099195 )
        ( 88.265 -0.717825578467 16.4409087539 )
        ( 88.9 -0.715212146578 16.3810513226 )
        ( 89.535 -0.712618950057 16.3216573575 )
        ( 90.17 -0.71004685393 16.2627466708 )
        ( 90.805 -0.707496726396 16.2043391477 )
        ( 91.44 -0.70496943846 16.1464547373 )
        ( 92.075 -0.70246586355 16.0891134445 )
        ( 92.71 -0.699986877113 16.0323353204 )
        ( 93.345 -0.697533356201 15.9761404526 )
        ( 93.98 -0.695106179021 15.9205489556 )
        ( 94.615 -0.692706224487 15.8655809596 )
        ( 95.25 -0.690334371735 15.8112566002 )
        ( 95.885 -0.687991499629 15.7575960068 )
        ( 96.52 -0.685678486245 15.7046192906 )
        ( 97.155 -0.683396208335 15.6523465324 )
        ( 97.79 -0.681145540774 15.6007977702 )
        ( 98.425 -0.678927355982 15.5499929858 )
        ( 99.06 -0.676742523338 15.4999520912 )
        ( 99.695 -0.674591908567 15.4506949147 )
        ( 100.33 -0.672476373111 15.4022411866 )
        ( 100.965 -0.670396773483 15.3546105243 )
        ( 101.6 -0.668353960607 15.3078224171 )
        ( 102.235 -0.666348779135 15.2618962108 )
        ( 102.87 -0.664382066755 15.2168510915 )
        ( 103.505 -0.66245465348 15.1727060698 )
        ( 104.14 -0.660567360927 15.1294799636 )
        ( 104.775 -0.658721001578 15.087191382 )
        ( 105.41 -0.656916378033 15.0458587074 )
        ( 106.045 -0.65515428225 15.0055000787 )
        ( 106.68 -0.65343549478 14.9661333735 )
        ( 107.315 -0.651760783989 14.9277761901 )
        ( 107.95 -0.650130905273 14.8904458302 )
        ( 108.585 -0.648546600276 14.85415928 )
        ( 109.22 -0.647008596092 14.8189331927 )
        ( 109.855 -0.645517604479 14.7847838704 )
        ( 110.49 -0.644074321058 14.7517272453 )
        ( 111.125 -0.642679424532 14.7197788623 )
        ( 111.76 -0.641333575891 14.6889538605 )
        ( 112.395 -0.640037417633 14.6592669557 )
        ( 113.03 -0.638791572992 14.6307324221 )
        ( 113.665 -0.63759664517 14.6033640754 )
        ( 114.3 -0.636453216593 14.5771752554 )
        ( 114.935 -0.635361848163 14.5521788087 )
        ( 115.57 -0.634323078546 14.528387073 )
        ( 116.205 -0.63333742346 14.50581186 )
        ( 116.84 -0.632405375001 14.4844644406 )
        ( 117.475 -0.631527400974 14.4643555293 )
        ( 118.11 -0.630703944264 14.4454952699 )
        ( 118.745 -0.629935422224 14.4278932213 )
        ( 119.38 -0.629222226096 14.4115583444 )
        ( 120.015 -0.628564720458 14.3964989894 )
        ( 120.65 -0.627963242713 14.3827228841 )
        ( 121.285 -0.6274181026 14.3702371228 )
        ( 121.92 -0.626929581752 14.3590481558 )
        ( 122.555 -0.626497933282 14.3491617805 )
        ( 123.19 -0.626123381418 14.3405831324 )
        ( 123.825 -0.625806121167 14.333316678 )
        ( 124.46 -0.625546318032 14.3273662079 )
        ( 125.095 -0.625344107762 14.3227348313 )
        ( 125.73 -0.625199596151 14.3194249712 )
        ( 126.365 -0.62511285888 14.3174383611 )
        ( 127.0 -0.625083941403 14.316776042 )
        ( 127.635 -0.625093580711 14.3169968184 )
        ( 128.27 -0.625122495363 14.3176590729 )
        ( 128.905 -0.625170675553 14.3187625806 )
        ( 129.54 -0.625238104939 14.3203069675 )
        ( 130.175 -0.625324760662 14.3222917098 )
        ( 130.81 -0.625430613353 14.3247161351 )
        ( 131.445 -0.625555627158 14.3275794219 )
        ( 132.08 -0.625699759756 14.3308806012 )
        ( 132.715 -0.625862962389 14.334618556 )
        ( 133.35 -0.626045179892 14.338792023 )
        ( 133.985 -0.626246350729 14.3433995927 )
        ( 134.62 -0.626466407031 14.3484397106 )
        ( 135.255 -0.626705274637 14.3539106783 )
        ( 135.89 -0.626962873146 14.3598106541 )
        ( 136.525 -0.627239115963 14.3661376548 )
        ( 137.16 -0.627533910353 14.3728895564 )
        ( 137.795 -0.627847157504 14.3800640957 )
        ( 138.43 -0.628178752579 14.3876588716 )
        ( 139.065 -0.628528584792 14.3956713466 )
        ( 139.7 -0.628896537466 14.4040988484 )
        ( 140.335 -0.629282488112 14.4129385714 )
        ( 140.97 -0.629686308497 14.4221875789 )
        ( 141.605 -0.630107864727 14.4318428039 )
        ( 142.24 -0.630547017323 14.441901052 )
        ( 142.875 -0.63100362131 14.4523590027 )
        ( 143.51 -0.631477526295 14.4632132114 )
        ( 144.145 -0.631968576564 14.4744601116 )
        ( 144.78 -0.632476611167 14.486096017 )
        ( 145.415 -0.633001464014 14.4981171236 )
        ( 146.05 -0.633542963971 14.5105195117 )
        ( 146.685 -0.634100934959 14.5232991483 )
        ( 147.32 -0.634675196049 14.5364518897 )
        ( 147.955 -0.63526556157 14.5499734832 )
        ( 148.59 -0.635871841209 14.5638595699 )
        ( 149.225 -0.636493840117 14.5781056871 )
        ( 149.86 -0.637131359016 14.5927072704 )
        ( 150.495 -0.637784194306 14.6076596569 )
        ( 151.13 -0.638452138176 14.6229580867 )
        ( 151.765 -0.639134978716 14.6385977063 )
        ( 152.4 -0.639832500024 14.6545735708 )
        ( 153.035 -0.640544482321 14.6708806464 )
        ( 153.67 -0.641270702068 14.6875138132 )
        ( 154.305 -0.642010932073 14.7044678677 )
        ( 154.94 -0.642764941612 14.7217375254 )
        ( 155.575 -0.643532496538 14.7393174235 )
        ( 156.21 -0.644313359403 14.7572021235 )
        ( 156.845 -0.64510728957 14.7753861139 )
        ( 157.48 -0.645914043327 14.7938638128 )
        ( 158.115 -0.646733374007 14.8126295706 )
        ( 158.75 -0.647565032101 14.8316776726 )
        ( 159.385 -0.648408765375 14.8510023417 )
        ( 160.02 -0.649264318983 14.870597741 )
        ( 160.655 -0.650131435587 14.8904579763 )
        ( 161.29 -0.651009855463 14.9105770993 )
        ( 161.925 -0.651899316626 14.9309491092 )
        ( 162.56 -0.652799554933 14.9515679563 )
        ( 163.195 -0.653710304203 14.972427544 )
        ( 163.83 -0.654631296323 14.9935217316 )
        ( 164.465 -0.655562261366 15.0148443367 )
        ( 165.1 -0.656502927694 15.0363891378 )
        ( 165.735 -0.657453022074 15.0581498767 )
        ( 166.37 -0.658412269779 15.0801202612 )
        ( 167.005 -0.659380394702 15.1022939675 )
        ( 167.64 -0.660357119457 15.1246646423 )
        ( 168.275 -0.661342165486 15.1472259056 )
        ( 168.91 -0.662335253162 15.1699713529 )
        ( 169.545 -0.66333610189 15.1928945575 )
        ( 170.18 -0.664344430211 15.215989073 )
        ( 170.815 -0.665359955898 15.2392484352 )
        ( 171.45 -0.666382396056 15.2626661649 )
        ( 172.085 -0.667411467216 15.2862357695 )
        ( 172.72 -0.668446885436 15.3099507456 )
        ( 173.355 -0.669488366386 15.3338045811 )
        ( 173.99 -0.670535625449 15.3577907572 )
        ( 174.625 -0.671588377804 15.3819027503 )
        ( 175.26 -0.672646338521 15.4061340345 )
        ( 175.895 -0.673709222642 15.4304780832 )
        ( 176.53 -0.674776745274 15.4549283713 )
        ( 177.165 -0.675848621666 15.4794783769 )
        ( 177.8 -0.676924567298 15.5041215834 )
        ( 178.435 -0.678004297956 15.5288514812 )
        ( 179.07 -0.679087529816 15.5536615698 )
        ( 179.705 -0.680173979519 15.578545359 )
        ( 180.34 -0.681263364246 15.6034963714 )
        ( 180.975 -0.682355401795 15.6285081434 )
        ( 181.61 -0.683449810654 15.6535742273 )
        ( 182.245 -0.684546310068 15.6786881928 )
        ( 182.88 -0.685644620113 15.7038436286 )
        ( 183.515 -0.68674446176 15.7290341438 )
        ( 184.15 -0.687845556944 15.7542533698 )
        ( 184.785 -0.688947628629 15.7794949613 )
        ( 185.42 -0.690050400867 15.8047525981 )
        ( 186.055 -0.691153598865 15.8300199863 )
        ( 186.69 -0.692256949039 15.8552908601 )
        ( 187.325 -0.693360179078 15.8805589822 )
        ( 187.96 -0.694463017997 15.9058181463 )
        ( 188.595 -0.695565196196 15.9310621773 )
        ( 189.23 -0.696666445508 15.9562849334 )
        ( 189.865 -0.697766499258 15.9814803066 )
        ( 190.5 -0.698865092311 16.0066422243 )
        ( 191.135 -0.699961961119 16.0317646503 )
        ( 191.77 -0.701056843775 16.056841586 )
        ( 192.405 -0.702149480056 16.0818670711 )
        ( 193.04 -0.703239611466 16.1068351854 )
        ( 193.675 -0.704326981288 16.1317400489 )
        ( 194.31 -0.705411334619 16.1565758233 )
        ( 194.945 -0.706492418415 16.1813367131 )
        ( 195.58 -0.707569981531 16.2060169661 )
        ( 196.215 -0.708643774761 16.2306108745 )
        ( 196.85 -0.709713550873 16.2551127757 )
        ( 197.485 -0.710779064649 16.2795170534 )
        ( 198.12 -0.711840072918 16.3038181381 )
        ( 198.755 -0.712896334591 16.3280105078 )
        ( 199.39 -0.713947610696 16.3520886892 )
        ( 200.025 -0.714993664407 16.3760472582 )
        ( 200.66 -0.716034261078 16.3998808404 )
        ( 201.295 -0.717069168272 16.4235841121 )
        ( 201.93 -0.71809815579 16.447151801 )
        ( 202.565 -0.719120995698 16.4705786864 )
        ( 203.2 -0.720137462356 16.4938596005 )
        ( 203.835 -0.721147332445 16.5169894282 )
        ( 204.47 -0.722150384988 16.5399631085 )
        ( 205.105 -0.723146401379 16.5627756344 )
        ( 205.74 -0.724135165405 16.5854220538 )
        ( 206.375 -0.725116463266 16.6078974699 )
        ( 207.01 -0.726090083602 16.6301970419 )
        ( 207.645 -0.727055817509 16.6523159849 )
        ( 208.28 -0.728013458565 16.6742495711 )
        ( 208.915 -0.728962802843 16.6959931298 )
        ( 209.55 -0.729903648934 16.7175420481 )
        ( 210.185 -0.730835797965 16.738891771 )
        ( 210.82 -0.731759053615 16.7600378019 )
        ( 211.455 -0.732673222132 16.7809757033 )
        ( 212.09 -0.733578112351 16.8017010967 )
        ( 212.725 -0.734473535705 16.8222096633 )
        ( 213.36 -0.735359306246 16.8424971441 )
        ( 213.995 -0.736235240656 16.8625593405 )
        ( 214.63 -0.737101158258 16.8823921142 )
        ( 215.265 -0.737956881035 16.9019913881 )
        ( 215.9 -0.738802233639 16.9213531459 )
        ( 216.535 -0.739637043403 16.940473433 )
        ( 217.17 -0.740461140355 16.9593483564 )
        ( 217.805 -0.741274357226 16.977974085 )
        ( 218.44 -0.742076529463 16.9963468498 )
        ( 219.075 -0.742867495239 17.0144629445 )
        ( 219.71 -0.743647095463 17.0323187253 )
        ( 220.345 -0.744415173786 17.0499106111 )
        ( 220.98 -0.745171576616 17.0672350842 )
        ( 221.615 -0.745916153121 17.0842886899 )
        ( 222.25 -0.74664875524 17.101068037 )
        ( 222.885 -0.747369237691 17.1175697982 )
        ( 223.52 -0.748077457978 17.1337907096 )
        ( 224.155 -0.748773276396 17.1497275715 )
        ( 224.79 -0.749456556043 17.1653772483 )
        ( 225.425 -0.75012716282 17.1807366687 )
        ( 226.06 -0.750784965443 17.1958028258 )
        ( 226.695 -0.751429835447 17.2105727772 )
        ( 227.33 -0.752061647187 17.2250436451 )
        ( 227.965 -0.752680277853 17.2392126169 )
        ( 228.6 -0.753285607465 17.2530769444 )
        ( 229.235 -0.753877518887 17.2666339448 )
        ( 229.87 -0.754455897822 17.2798810004 )
        ( 230.505 -0.755020632827 17.2928155585 )
        ( 231.14 -0.755571615308 17.3054351321 )
        ( 231.775 -0.75610873953 17.3177372993 )
        ( 232.41 -0.756631902617 17.329719704 )
        ( 233.045 -0.757141004558 17.3413800555 )
        ( 233.68 -0.757635948211 17.3527161289 )
        ( 234.315 -0.758116639301 17.3637257649 )
        ( 234.95 -0.758582986432 17.3744068703 )
        ( 235.585 -0.75903490108 17.3847574174 )
        ( 236.22 -0.759472297604 17.3947754449 )
        ( 236.855 -0.759895093244 17.4044590571 )
        ( 237.49 -0.760303208125 17.4138064246 )
        ( 238.125 -0.760696565258 17.4228157842 )
        ( 238.76 -0.761075090543 17.4314854386 )
        ( 239.395 -0.761438712774 17.4398137569 )
        ( 240.03 -0.761787363634 17.4477991744 )
        ( 240.665 -0.762120977704 17.4554401929 )
        ( 241.3 -0.762439492461 17.4627353802 )
        ( 241.935 -0.762742848279 17.4696833707 )
        ( 242.57 -0.763030988433 17.4762828653 )
        ( 243.205 -0.763303859099 17.482532631 )
        ( 243.84 -0.763561409356 17.4884315017 )
        ( 244.475 -0.763803591185 17.4939783775 )
        ( 245.11 -0.764030359473 17.4991722253 )
        ( 245.745 -0.764241672014 17.5040120782 )
        ( 246.38 -0.764437489506 17.5084970361 )
        ( 247.015 -0.764617775558 17.5126262655 )
        ( 247.65 -0.764782496684 17.5163989996 )
        ( 248.285 -0.76493162231 17.519814538 )
        ( 248.92 -0.765065124772 17.5228722471 )
        ( 249.555 -0.765182979314 17.5255715599 )
        ( 250.19 -0.765285164093 17.5279119761 )
        ( 250.825 -0.765371660178 17.5298930621 )
        ( 251.46 -0.765442451549 17.5315144511 )
        ( 252.095 -0.765497525097 17.5327758427 )
        ( 252.73 -0.765536870628 17.5336770036 )
        ( 253.365 -0.76556048086 17.5342177668 )
    )

    spline 4 5
    (
        ( 0.635 0.988326202205 22.6363916207 )
        ( 1.27 0.988271335856 22.6351349747 )
        ( 1.905 0.988179900215 22.6330407542 )
        ( 2.54 0.988051907694 22.6301092435 )
        ( 3.175 0.987887375671 22.6263408406 )
        ( 3.81 0.987686326494 22.6217360574 )
        ( 4.445 0.987448787479 22.6162955195 )
        ( 5.08 0.987174790919 22.6100199665 )
        ( 5.715 0.986864374081 22.6029102521 )
        ( 6.35 0.986517579216 22.5949673438 )
        ( 6.985 0.986134453559 22.5861923235 )
        ( 7.62 0.985715049336 22.5765863876 )
        ( 8.255 0.98525942377 22.5661508464 )
        ( 8.89 0.984767639086 22.5548871253 )
        ( 9.525 0.984239762517 22.5427967641 )
        ( 10.16 0.983675866315 22.5298814177 )
        ( 10.795 0.983076027755 22.516142856 )
        ( 11.43 0.982440329143 22.501582964 )
        ( 12.065 0.981768857827 22.4862037424 )
        ( 12.7 0.981061706209 22.4700073076 )
        ( 13.335 0.980318971748 22.4529958916 )
        ( 13.97 0.979540756976 22.4351718429 )
        ( 14.605 0.978727169507 22.4165376263 )
        ( 15.24 0.97787832205 22.3970958231 )
        ( 15.875 0.976994332422 22.3768491319 )
        ( 16.51 0.976075323556 22.3558003683 )
        ( 17.145 0.975121423521 22.3339524656 )
        ( 17.78 0.974132765532 22.3113084748 )
        ( 18.415 0.973109487967 22.2878715654 )
        ( 19.05 0.972051734379 22.2636450252 )
        ( 19.685 0.970959653516 22.2386322611 )
        ( 20.32 0.969833399333 22.2128367994 )
        ( 20.955 0.968673131015 22.1862622858 )
        ( 21.59 0.967479012989 22.1589124865 )
        ( 22.225 0.966251214944 22.130791288 )
        ( 22.86 0.964989911853 22.1019026977 )
        ( 23.495 0.963695283989 22.0722508446 )
        ( 24.13 0.962367516948 22.0418399796 )
        ( 24.765 0.961006801665 22.0106744758 )
        ( 25.4 0.959613334444 21.9787588292 )
        ( 26.035 0.958187316971 21.9460976594 )
        ( 26.67 0.956728956345 21.9126957095 )
        ( 27.305 0.955238465095 21.8785578474 )
        ( 27.94 0.953716061209 21.8436890657 )
        ( 28.575 0.952161968155 21.8080944828 )
        ( 29.21 0.950576414911 21.771779343 )
        ( 29.845 0.948959635988 21.7347490176 )
        ( 30.48 0.947311871456 21.6970090051 )
        ( 31.115 0.945633366977 21.658564932 )
        ( 31.75 0.943924373826 21.6194225536 )
        ( 32.385 0.942185148927 21.5795877542 )
        ( 33.02 0.940415954877 21.5390665485 )
        ( 33.655 0.938617059982 21.4978650816 )
        ( 34.29 0.936788738281 21.45598963 )
        ( 34.925 0.934931269585 21.4134466025 )
        ( 35.56 0.933044939506 21.3702425406 )
        ( 36.195 0.93113003949 21.3263841196 )
        ( 36.83 0.929186866849 21.281878149 )
        ( 37.465 0.927215724803 21.2367315737 )
        ( 38.1 0.925216922504 21.1909514745 )
        ( 38.735 0.923190775084 21.144545069 )
        ( 39.37 0.921137603681 21.0975197125 )
        ( 40.005 0.919057735482 21.0498828989 )
        ( 40.64 0.91695150376 21.0016422614 )
        ( 41.275 0.914819247913 20.9528055734 )
        ( 41.91 0.9126613135 20.9033807495 )
        ( 42.545 0.910478052283 20.8533758465 )
        ( 43.18 0.908269822268 20.8027990639 )
        ( 43.815 0.906036987745 20.7516587455 )
        ( 44.45 0.903779919329 20.6999633797 )
        ( 45.085 0.901498994002 20.6477216008 )
        ( 45.72 0.899194595155 20.5949421898 )
        ( 46.355 0.896867112633 20.5416340758 )
        ( 46.99 0.894516942776 20.4878063364 )
        ( 47.625 0.892144488464 20.4334681991 )
        ( 48.26 0.889750159161 20.3786290421 )
        ( 48.895 0.887334370958 20.3232983955 )
        ( 49.53 0.884897546621 20.2674859422 )
        ( 50.165 0.882440115633 20.211201519 )
        ( 50.8 0.87996251424 20.1544551176 )
        ( 51.435 0.877465185497 20.0972568855 )
        ( 52.07 0.874948579315 20.0396171276 )
        ( 52.705 0.872413152502 19.9815463063 )
        ( 53.34 0.869859368813 19.9230550434 )
        ( 53.975 0.867287698993 19.8641541208 )
        ( 54.61 0.864698620823 19.8048544814 )
        ( 55.245 0.862092619165 19.7451672304 )
        ( 55.88 0.859470186006 19.6851036361 )
        ( 56.515 0.856831820504 19.6246751313 )
        ( 57.15 0.85417802903 19.5638933135 )
        ( 57.785 0.851509325211 19.5027699469 )
        ( 58.42 0.848826229973 19.4413169627 )
        ( 59.055 0.846129271584 19.37954646 )
        ( 59.69 0.843418985692 19.3174707074 )
        ( 60.325 0.840695915364 19.255102143 )
        ( 60.96 0.83796061113 19.1924533761 )
        ( 61.595 0.835213631011 19.1295371875 )
        ( 62.23 0.832455540562 19.0663665305 )
        ( 62.865 0.829686912902 19.0029545317 )
        ( 63.5 0.826908328747 18.9393144917 )
        ( 64.135 0.824120376438 18.8754598856 )
        ( 64.77 0.821323651972 18.8114043642 )
        ( 65.405 0.818518759025 18.7471617537 )
        ( 66.04 0.815706308972 18.6827460571 )
        ( 66.675 0.812886920913 18.618171454 )
        ( 67.31 0.810061221684 18.5534523013 )
        ( 67.945 0.807229845874 18.4886031336 )
        ( 68.58 0.804393435832 18.423638663 )
        ( 69.215 0.801552641677 18.3585737797 )
        ( 69.85 0.798708121296 18.2934235518 )
        ( 70.485 0.795860540342 18.2282032252 )
        ( 71.12 0.79301057223 18.1629282238 )
        ( 71.755 0.790158898123 18.0976141486 )
        ( 72.39 0.787306206916 18.032276778 )
        ( 73.025 0.784453195211 17.9669320668 )
        ( 73.66 0.781600567291 17.9015961457 )
        ( 74.295 0.778749035083 17.8362853206 )
        ( 74.93 0.775899318118 17.7710160714 )
        ( 75.565 0.773052143481 17.705805051 )
        ( 76.2 0.770208245758 17.6406690843 )
        ( 76.835 0.767368366968 17.5756251663 )
        ( 77.47 0.764533256494 17.5106904607 )
        ( 78.105 0.761703671002 17.445882298 )
        ( 78.74 0.758880374351 17.3812181734 )
        ( 79.375 0.756064137494 17.3167157447 )
        ( 80.01 0.75325573837 17.2523928296 )
        ( 80.645 0.750455961785 17.1882674031 )
        ( 81.28 0.747665599279 17.1243575945 )
        ( 81.915 0.744885448989 17.0606816841 )
        ( 82.55 0.742116315491 16.9972580997 )
        ( 83.185 0.739359009642 16.934105413 )
        ( 83.82 0.736614348393 16.8712423352 )
        ( 84.455 0.733883154605 16.808687713 )
        ( 85.09 0.731166256841 16.7464605236 )
        ( 85.725 0.728464489147 16.6845798698 )
        ( 86.36 0.725778690823 16.6230649747 )
        ( 86.995 0.723109706166 16.5619351758 )
        ( 87.63 0.720458384216 16.5012099195 )
        ( 88.265 0.717825578467 16.4409087539 )
        ( 88.9 0.715212146578 16.3810513226 )
        ( 89.535 0.712618950057 16.3216573575 )
        ( 90.17 0.71004685393 16.2627466708 )
        ( 90.805 0.707496726396 16.2043391477 )
        ( 91.44 0.70496943846 16.1464547373 )
        ( 92.075 0.70246586355 16.0891134445 )
        ( 92.71 0.699986877113 16.0323353204 )
        ( 93.345 0.697533356201 15.9761404526 )
        ( 93.98 0.695106179021 15.9205489556 )
        ( 94.615 0.692706224487 15.8655809596 )
        ( 95.25 0.690334371735 15.8112566002 )
        ( 95.885 0.687991499629 15.7575960068 )
        ( 96.52 0.685678486245 15.7046192906 )
        ( 97.155 0.683396208335 15.6523465324 )
        ( 97.79 0.681145540774 15.6007977702 )
        ( 98.425 0.678927355982 15.5499929858 )
        ( 99.06 0.676742523338 15.4999520912 )
        ( 99.695 0.674591908567 15.4506949147 )
        ( 100.33 0.672476373111 15.4022411866 )
        ( 100.965 0.670396773483 15.3546105243 )
        ( 101.6 0.668353960607 15.3078224171 )
        ( 102.235 0.666348779135 15.2618962108 )
        ( 102.87 0.664382066755 15.2168510915 )
        ( 103.505 0.66245465348 15.1727060698 )
        ( 104.14 0.660567360927 15.1294799636 )
        ( 104.775 0.658721001578 15.087191382 )
        ( 105.41 0.656916378033 15.0458587074 )
        ( 106.045 0.65515428225 15.0055000787 )
        ( 106.68 0.65343549478 14.9661333735 )
        ( 107.315 0.651760783989 14.9277761901 )
        ( 107.95 0.650130905273 14.8904458302 )
        ( 108.585 0.648546600276 14.85415928 )
        ( 109.22 0.647008596092 14.8189331927 )
        ( 109.855 0.645517604479 14.7847838704 )
        ( 110.49 0.644074321058 14.7517272453 )
        ( 111.125 0.642679424532 14.7197788623 )
        ( 111.76 0.641333575891 14.6889538605 )
        ( 112.395 0.640037417633 14.6592669557 )
        ( 113.03 0.638791572992 14.6307324221 )
        ( 113.665 0.63759664517 14.6033640754 )
        ( 114.3 0.636453216593 14.5771752554 )
        ( 114.935 0.635361848163 14.5521788087 )
        ( 115.57 0.634323078546 14.528387073 )